22

C          2.27286        0.73579       -0.67456
C          2.33155       -0.65508       -0.58769
C          1.21289       -1.37860       -0.17258
C          0.02280       -0.71195        0.15983
C         -0.04659        0.70282        0.07458
C          1.09562        1.41376       -0.34716
C         -1.25329        1.36044        0.41302
C         -2.37213        0.61564        0.82983
C         -2.28117       -0.78738        0.90723
C         -1.09646       -1.44170        0.57561
H          3.14368        1.29197       -0.99717
H          3.24658       -1.17394       -0.84279
H          1.27780       -2.45858       -0.11135
H          1.09428        2.49163       -0.42869
H         -3.12443       -1.38596        1.22420
H         -1.05595       -2.52253        0.64476
Br        -1.42359        3.27836        0.32201
O         -3.51468        1.28128        1.14702
C         -4.69669        0.71010        1.57102
H         -5.44219        1.51170        1.75004
H         -4.53692        0.15703        2.52106
H         -5.09373        0.02543        0.79154
