19

H          1.19298        2.02725       -0.08379
C          0.67274        1.07731       -0.05794
C         -0.72228        1.09282       -0.07435
H         -1.25210        2.03602       -0.11185
C         -1.43489       -0.10247       -0.04284
H         -2.51715       -0.08684       -0.05587
C         -0.75586       -1.31938        0.00529
H         -1.33499       -2.23441        0.02883
C          0.65107       -1.35980        0.02305
C          1.38217       -0.13861       -0.00915
C          1.32394       -2.70721        0.07473
B          2.97241       -0.05588        0.00464
O          3.63253        1.24832       -0.04145
O          3.80640       -1.25414        0.05917
H          0.58733       -3.53865        0.09017
H          1.93686       -2.78821        0.99617
H          1.96453       -2.84382       -0.82137
H          3.77198        1.42521       -1.00605
H          4.03069       -1.36007        1.01817
